/*--------------------------------*- C++ -*----------------------------------*\
| =========                 |                                                 |
| \\      /  F ield         | OpenFOAM: The Open Source CFD Toolbox           |
|  \\    /   O peration     | Version:  2306                                  |
|   \\  /    A nd           | Website:  www.openfoam.com                      |
|    \\/     M anipulation  |                                                 |
\*---------------------------------------------------------------------------*/
FoamFile
{
    version     2.0;
    format      binary;
    arch        "LSB;label=32;scalar=64";
    class       polyBoundaryMesh;
    location    "constant/polyMesh";
    object      boundary;
}
// * * * * * * * * * * * * * * * * * * * * * * * * * * * * * * * * * * * * * //

5
(
    topAndBottom
    {
        type            wall;
        inGroups        1(wall);
        nFaces          100;
        startFace       52170;
    }
    inlet
    {
        type            patch;
        nFaces          50;
        startFace       52270;
    }
    outlet
    {
        type            patch;
        nFaces          50;
        startFace       52320;
    }
    frontAndBack
    {
        type            empty;
        inGroups        1(empty);
        nFaces          10008;
        startFace       52370;
    }
    cylinder
    {
        type            wall;
        inGroups        1(wall);
        nFaces          2360;
        startFace       62378;
    }
)

// ************************************************************************* //
